data_image0
_chemical_formula_structural       Al8
_chemical_formula_sum              "Al8"
_cell_length_a       4.05
_cell_length_b       4.05
_cell_length_c       8.1
_cell_angle_alpha    90
_cell_angle_beta     90
_cell_angle_gamma    90

_space_group_name_H-M_alt    "P 1"
_space_group_IT_number       1

loop_
  _space_group_symop_operation_xyz
  'x, y, z'

loop_
  _atom_site_type_symbol
  _atom_site_label
  _atom_site_symmetry_multiplicity
  _atom_site_fract_x
  _atom_site_fract_y
  _atom_site_fract_z
  _atom_site_occupancy
  Al  Al1       1.0  0.01166  0.01630  0.99882  1.0000
  Al  Al2       1.0  0.01056  0.50329  0.24803  1.0000
  Al  Al3       1.0  0.49494  0.01030  0.25181  1.0000
  Al  Al4       1.0  0.49525  0.49518  0.99912  1.0000
  Al  Al5       1.0  0.00601  0.99158  0.50405  1.0000
  Al  Al6       1.0  0.99610  0.48732  0.74497  1.0000
  Al  Al7       1.0  0.50542  0.98778  0.75388  1.0000
  Al  Al8       1.0  0.49705  0.50163  0.50073  1.0000
