data_image0
_chemical_formula_structural       FeNiF6
_chemical_formula_sum              "Fe1 Ni1 F6"
_cell_length_a       5.26998
_cell_length_b       5.26998
_cell_length_c       5.26998
_cell_angle_alpha    57.0998
_cell_angle_beta     57.0998
_cell_angle_gamma    57.0998

_space_group_name_H-M_alt    "P 1"
_space_group_IT_number       1

loop_
  _space_group_symop_operation_xyz
  'x, y, z'

loop_
  _atom_site_type_symbol
  _atom_site_label
  _atom_site_symmetry_multiplicity
  _atom_site_fract_x
  _atom_site_fract_y
  _atom_site_fract_z
  _atom_site_occupancy
  Fe  Fe1       1.0  0.50000  0.50000  0.50000  1.0000
  Ni  Ni1       1.0  0.00000  0.00000  0.00000  1.0000
  F   F1        1.0  0.13390  0.76130  0.34450  1.0000
  F   F2        1.0  0.65550  0.86610  0.23870  1.0000
  F   F3        1.0  0.23870  0.65550  0.86610  1.0000
  F   F4        1.0  0.86610  0.23870  0.65550  1.0000
  F   F5        1.0  0.34450  0.13390  0.76130  1.0000
  F   F6        1.0  0.76130  0.34450  0.13390  1.0000
