data_image0
_chemical_formula_structural       Ga20As20
_chemical_formula_sum              "Ga20 As20"
_cell_length_a       3.99738
_cell_length_b       3.99738
_cell_length_c       79.9476
_cell_angle_alpha    60
_cell_angle_beta     60
_cell_angle_gamma    60

_space_group_name_H-M_alt    "P 1"
_space_group_IT_number       1

loop_
  _space_group_symop_operation_xyz
  'x, y, z'

loop_
  _atom_site_type_symbol
  _atom_site_label
  _atom_site_symmetry_multiplicity
  _atom_site_fract_x
  _atom_site_fract_y
  _atom_site_fract_z
  _atom_site_occupancy
  Ga  Ga1       1.0  0.99766  0.00071  0.00001  1.0000
  Ga  Ga2       1.0  0.99985  0.00271  0.04998  1.0000
  Ga  Ga3       1.0  0.00122  0.99723  0.10008  1.0000
  Ga  Ga4       1.0  0.99932  0.99903  0.15008  1.0000
  Ga  Ga5       1.0  0.00287  0.99792  0.20009  1.0000
  Ga  Ga6       1.0  0.00139  0.99896  0.25000  1.0000
  Ga  Ga7       1.0  0.00116  0.00390  0.29986  1.0000
  Ga  Ga8       1.0  0.99928  0.00099  0.34999  1.0000
  Ga  Ga9       1.0  0.99963  0.99876  0.39999  1.0000
  Ga  Ga10      1.0  0.00197  0.99664  0.45009  1.0000
  Ga  Ga11      1.0  0.00122  0.00041  0.49995  1.0000
  Ga  Ga12      1.0  0.99974  0.99869  0.55004  1.0000
  Ga  Ga13      1.0  0.00008  0.99952  0.59998  1.0000
  Ga  Ga14      1.0  0.00028  0.99868  0.65003  1.0000
  Ga  Ga15      1.0  0.99684  0.00157  0.69999  1.0000
  Ga  Ga16      1.0  0.99964  0.00282  0.74990  1.0000
  Ga  Ga17      1.0  0.00174  0.00187  0.80000  1.0000
  Ga  Ga18      1.0  0.99686  0.00333  0.85001  1.0000
  Ga  Ga19      1.0  0.00228  0.99765  0.90001  1.0000
  Ga  Ga20      1.0  0.00150  0.00080  0.95005  1.0000
  As  As1       1.0  0.25010  0.25032  0.01257  1.0000
  As  As2       1.0  0.25050  0.25136  0.06234  1.0000
  As  As3       1.0  0.24798  0.25078  0.11250  1.0000
  As  As4       1.0  0.25082  0.25253  0.16240  1.0000
  As  As5       1.0  0.24834  0.24944  0.21250  1.0000
  As  As6       1.0  0.24895  0.25080  0.26242  1.0000
  As  As7       1.0  0.24919  0.24889  0.31260  1.0000
  As  As8       1.0  0.25183  0.24637  0.36252  1.0000
  As  As9       1.0  0.25034  0.24953  0.41244  1.0000
  As  As10      1.0  0.24815  0.25009  0.46259  1.0000
  As  As11      1.0  0.24742  0.25225  0.51249  1.0000
  As  As12      1.0  0.25006  0.24765  0.56254  1.0000
  As  As13      1.0  0.25036  0.24843  0.61251  1.0000
  As  As14      1.0  0.25417  0.24994  0.66239  1.0000
  As  As15      1.0  0.25065  0.25263  0.71252  1.0000
  As  As16      1.0  0.25137  0.25104  0.76252  1.0000
  As  As17      1.0  0.24974  0.24672  0.81250  1.0000
  As  As18      1.0  0.25117  0.24970  0.86255  1.0000
  As  As19      1.0  0.25127  0.25050  0.91258  1.0000
  As  As20      1.0  0.25045  0.25095  0.96245  1.0000
