data_image0
_cell_length_a       2.88
_cell_length_b       2.88
_cell_length_c       28.8
_cell_angle_alpha    90
_cell_angle_beta     90
_cell_angle_gamma    90

_symmetry_space_group_name_H-M    "P 1"
_symmetry_int_tables_number       1

loop_
  _symmetry_equiv_pos_as_xyz
  'x, y, z'

loop_
  _atom_site_label
  _atom_site_occupancy
  _atom_site_fract_x
  _atom_site_fract_y
  _atom_site_fract_z
  _atom_site_thermal_displace_type
  _atom_site_B_iso_or_equiv
  _atom_site_type_symbol
  Cr1      1.0000 0.00000  0.00000  0.00000  Biso   1.000  Cr
  Cr2      1.0000 0.50000  0.50000  0.05000  Biso   1.000  Cr
  Cr3      1.0000 0.00000  0.00000  0.10000  Biso   1.000  Cr
  Cr4      1.0000 0.50000  0.50000  0.15000  Biso   1.000  Cr
  Cr5      1.0000 0.00000  0.00000  0.20000  Biso   1.000  Cr
  Cr6      1.0000 0.50000  0.50000  0.25000  Biso   1.000  Cr
  Cr7      1.0000 0.00000  0.00000  0.30000  Biso   1.000  Cr
  Cr8      1.0000 0.50000  0.50000  0.35000  Biso   1.000  Cr
  Cr9      1.0000 0.00000  0.00000  0.40000  Biso   1.000  Cr
  Cr10     1.0000 0.50000  0.50000  0.45000  Biso   1.000  Cr
  Cr11     1.0000 0.50000  0.50000  0.55000  Biso   1.000  Cr
  Cr12     1.0000 0.00000  0.00000  0.60000  Biso   1.000  Cr
  Cr13     1.0000 0.50000  0.50000  0.65000  Biso   1.000  Cr
  Cr14     1.0000 0.00000  0.00000  0.70000  Biso   1.000  Cr
  Cr15     1.0000 0.50000  0.50000  0.75000  Biso   1.000  Cr
  Cr16     1.0000 0.00000  0.00000  0.80000  Biso   1.000  Cr
  Cr17     1.0000 0.50000  0.50000  0.85000  Biso   1.000  Cr
  Cr18     1.0000 0.00000  0.00000  0.90000  Biso   1.000  Cr
  Cr19     1.0000 0.50000  0.50000  0.95000  Biso   1.000  Cr
